Nordic - 68/PSSE files for Nordic-68/Nordic32_MOD_basecase.raw
0,   100.00, 33, 0, 1, 50.00     / PSS(R)E-33.4    TUE, MAR 17 2020  18:18
NORDIC 32A - MODERATE TRANSFER FROM NORTH - BASE CASE FILE
INTRODUCTION TO PSSE (STRI INTERNAL COURSE) - NU/STRI/S 1037
    41,'BUS41       ', 130.0000,1,   8,   1,   1,0.98548, -47.8380,1.10000,0.90000,1.10000,0.90000
    42,'BUS42       ', 130.0000,1,   8,   1,   1,0.98196, -46.8472,1.10000,0.90000,1.10000,0.90000
    43,'BUS43       ', 130.0000,1,   8,   1,   1,0.97466, -53.1476,1.10000,0.90000,1.10000,0.90000
    46,'BUS46       ', 130.0000,1,   8,   1,   1,0.97181, -53.1917,1.10000,0.90000,1.10000,0.90000
    47,'BUS47       ', 130.0000,1,   8,   1,   1,1.00116, -46.5463,1.10000,0.90000,1.10000,0.90000
    51,'BUS51       ', 130.0000,1,   8,   1,   1,1.00075, -55.2030,1.10000,0.90000,1.10000,0.90000
    61,'BUS61       ', 130.0000,1,   8,   1,   1,0.96407, -53.3130,1.10000,0.90000,1.10000,0.90000
    62,'BUS62       ', 130.0000,1,   8,   1,   1,0.98183, -49.1849,1.10000,0.90000,1.10000,0.90000
    63,'BUS63       ', 130.0000,1,   8,   1,   1,0.95114, -51.7744,1.10000,0.90000,1.10000,0.90000
  1011,'BUS1011     ', 130.0000,1,   1,   1,   1,1.11822,   1.0617,1.10000,0.90000,1.10000,0.90000
  1012,'BUS1012     ', 130.0000,2,   1,   1,   1,1.13000,   3.4805,1.10000,0.90000,1.10000,0.90000
  1013,'BUS1013     ', 130.0000,2,   1,   1,   1,1.14500,   7.8543,1.10000,0.90000,1.10000,0.90000
  1014,'BUS1014     ', 130.0000,2,   1,   1,   1,1.16000,  10.2378,1.10000,0.90000,1.10000,0.90000
  1021,'BUS1021     ', 130.0000,2,   2,   1,   1,1.10000,  11.2577,1.10000,0.90000,1.10000,0.90000
  1022,'BUS1022     ', 130.0000,2,   2,   1,   1,1.06678,  -9.2925,1.10000,0.90000,1.10000,0.90000
  1041,'BUS1041     ', 130.0000,1,   4,   1,   1,0.97080, -68.0605,1.10000,0.90000,1.10000,0.90000
  1042,'BUS1042     ', 130.0000,2,   4,   1,   1,1.00000, -50.9944,1.10000,0.90000,1.10000,0.90000
  1043,'BUS1043     ', 130.0000,2,   4,   1,   1,0.99986, -62.6955,1.10000,0.90000,1.10000,0.90000
  1044,'BUS1044     ', 130.0000,1,   4,   1,   1,0.99087, -54.2105,1.10000,0.90000,1.10000,0.90000
  1045,'BUS1045     ', 130.0000,1,   4,   1,   1,0.99751, -57.5189,1.10000,0.90000,1.10000,0.90000
  2031,'BUS2031     ', 220.0000,1,   3,   1,   1,1.05182, -25.0982,1.10000,0.90000,1.10000,0.90000
  2032,'BUS2032     ', 220.0000,2,   3,   1,   1,1.10000, -12.2426,1.10000,0.90000,1.10000,0.90000
  4011,'BUS4011     ', 400.0000,3,   1,   1,   1,1.00500,   0.0000,1.10000,0.90000,1.10000,0.90000
  4012,'BUS4012     ', 400.0000,2,   1,   1,   1,1.01000,   1.4010,1.10000,0.90000,1.10000,0.90000
  4021,'BUS4021     ', 400.0000,2,   2,   1,   1,1.02153, -24.4166,1.10000,0.90000,1.10000,0.90000
  4022,'BUS4022     ', 400.0000,1,   2,   1,   1,0.99879, -11.5487,1.10000,0.90000,1.10000,0.90000
  4031,'BUS4031     ', 400.0000,2,   3,   1,   1,1.01000, -28.2828,1.10000,0.90000,1.10000,0.90000
  4032,'BUS4032     ', 400.0000,1,   3,   1,   1,1.01916, -32.6572,1.10000,0.90000,1.10000,0.90000
  4041,'BUS4041     ', 400.0000,2,   8,   1,   1,1.00000, -44.6969,1.10000,0.90000,1.10000,0.90000
  4042,'BUS4042     ', 400.0000,2,   8,   1,   1,1.00000, -43.8117,1.10000,0.90000,1.10000,0.90000
  4043,'BUS4043     ', 400.0000,1,   8,   1,   1,0.99392, -49.4189,1.10000,0.90000,1.10000,0.90000
  4044,'BUS4044     ', 400.0000,1,   8,   1,   1,0.99530, -50.9533,1.10000,0.90000,1.10000,0.90000
  4045,'BUS4045     ', 400.0000,1,   5,   1,   1,1.00304, -54.7605,1.10000,0.90000,1.10000,0.90000
  4046,'BUS4046     ', 400.0000,1,   8,   1,   1,0.99436, -49.0376,1.10000,0.90000,1.10000,0.90000
  4047,'BUS4047     ', 400.0000,2,   8,   1,   1,1.02000, -44.3015,1.10000,0.90000,1.10000,0.90000
  4051,'BUS4051     ', 400.0000,2,   5,   1,   1,1.02000, -52.0582,1.10000,0.90000,1.10000,0.90000
  4061,'BUS4061     ', 400.0000,1,   6,   1,   1,0.98153, -49.3741,1.10000,0.90000,1.10000,0.90000
  4062,'BUS4062     ', 400.0000,2,   6,   1,   1,1.00000, -45.6814,1.10000,0.90000,1.10000,0.90000
  4063,'BUS4063     ', 400.0000,2,   6,   1,   1,0.98004, -48.1456,1.10000,0.90000,1.10000,0.90000
  5100,'            ', 300.0000,2,  21,   1,   1,1.00000, -50.4141,1.10000,0.90000,1.10000,0.90000
  5101,'NOR_1       ', 400.0000,1,  21,   1,   1,1.00284, -49.5226,1.10000,0.90000,1.10000,0.90000
  5102,'            ', 400.0000,1,  21,   1,   1,0.99978, -48.6677,1.10000,0.90000,1.10000,0.90000
  5103,'            ', 400.0000,1,  21,   1,   1,0.99860, -47.8859,1.10000,0.90000,1.10000,0.90000
  5300,'            ', 300.0000,2,  21,   1,   1,1.00000, -36.7464,1.10000,0.90000,1.10000,0.90000
  5301,'            ', 400.0000,1,  21,   1,   1,1.00005, -41.9900,1.10000,0.90000,1.10000,0.90000
  5400,'            ', 300.0000,2,  21,   1,   1,1.00000, -48.6733,1.10000,0.90000,1.10000,0.90000
  5401,'            ', 400.0000,1,  21,   1,   1,0.99329, -50.9759,1.10000,0.90000,1.10000,0.90000
  5402,'            ', 400.0000,1,  21,   1,   1,1.00015, -48.9055,1.10000,0.90000,1.10000,0.90000
  5500,'            ', 300.0000,2,  21,   1,   1,1.00000, -51.0991,1.10000,0.90000,1.10000,0.90000
  5501,'            ', 400.0000,1,  21,   1,   1,1.00202, -50.8161,1.10000,0.90000,1.10000,0.90000
  5600,'            ', 300.0000,2,  21,   1,   1,1.00000, -57.8240,1.10000,0.90000,1.10000,0.90000
  5601,'            ', 400.0000,1,  21,   1,   1,0.99970, -57.5470,1.10000,0.90000,1.10000,0.90000
  5602,'            ', 400.0000,1,  21,   1,   1,0.93275, -60.7588,1.10000,0.90000,1.10000,0.90000
  5603,'            ', 300.0000,1,  21,   1,   1,0.92673, -62.0901,1.10000,0.90000,1.10000,0.90000
  6000,'            ', 300.0000,2,  21,   1,   1,1.00000, -49.5340,1.10000,0.90000,1.10000,0.90000
  6001,'            ', 400.0000,1,  21,   1,   1,0.99944, -50.0685,1.10000,0.90000,1.10000,0.90000
  6100,'            ', 300.0000,2,  21,   1,   1,1.00000, -53.1904,1.10000,0.90000,1.10000,0.90000
  7100,'BUS4071     ', 400.0000,2,   7,   1,   1,1.01000,   0.6532,1.10000,0.90000,1.10000,0.90000
  7101,'            ', 400.0000,2,   1,   1,   1,1.01000,   0.5874,1.10000,0.90000,1.10000,0.90000
  7102,'            ', 400.0000,1,   1,   1,   1,1.01911,   6.3502,1.10000,0.90000,1.10000,0.90000
  7200,'BUS4072     ', 400.0000,1,   7,   1,   1,1.02055,  10.1104,1.10000,0.90000,1.10000,0.90000
  7201,'            ', 400.0000,2,   1,   1,   1,1.01000,  12.2768,1.10000,0.90000,1.10000,0.90000
  7203,'            ', 400.0000,2,   1,   1,   1,1.01000,  15.3711,1.10000,0.90000,1.10000,0.90000
  7204,'            ', 400.0000,2,   1,   1,   1,1.01000,  10.9922,1.10000,0.90000,1.10000,0.90000
  7205,'            ', 400.0000,2,   1,   1,   1,1.01000,  12.0941,1.10000,0.90000,1.10000,0.90000
  8001,'LIT         ', 400.0000,4,   1,   1,   1,1.00000, -43.0000,1.10000,0.90000,1.10000,0.90000
  8002,'LIT2        ', 400.0000,4,   1,   1,   1,1.00000, -43.0000,1.10000,0.90000,1.10000,0.90000
  8500,'            ', 400.0000,2,   1,   1,   1,1.02000, -48.7492,1.10000,0.90000,1.10000,0.90000
0 / END OF BUS DATA, BEGIN LOAD DATA
    41,'1 ',1,   8,   1,   540.000,   128.280,     0.000,     0.000,     0.000,     0.000,   1,1,0
    42,'1 ',1,   8,   1,   400.000,   125.670,     0.000,     0.000,     0.000,     0.000,   1,1,0
    43,'1 ',1,   8,   1,   900.000,   238.830,     0.000,     0.000,     0.000,     0.000,   1,1,0
    46,'1 ',1,   8,   1,   700.000,   193.720,     0.000,     0.000,     0.000,     0.000,   1,1,0
    47,'1 ',1,   8,   1,   100.000,    45.190,     0.000,     0.000,     0.000,     0.000,   1,1,0
    51,'1 ',1,   8,   1,   800.000,   253.220,     0.000,     0.000,     0.000,     0.000,   1,1,0
    61,'1 ',1,   8,   1,   500.000,   112.310,     0.000,     0.000,     0.000,     0.000,   1,1,0
    62,'1 ',1,   8,   1,   300.000,    80.020,     0.000,     0.000,     0.000,     0.000,   1,1,0
    63,'1 ',1,   8,   1,   590.000,   256.190,     0.000,     0.000,     0.000,     0.000,   1,1,0
  1011,'1 ',1,   1,   1,   200.000,    80.000,     0.000,     0.000,     0.000,     0.000,   1,1,0
  1012,'1 ',1,   1,   1,   300.000,   100.000,     0.000,     0.000,     0.000,     0.000,   1,1,0
  1013,'1 ',1,   1,   1,   100.000,    40.000,     0.000,     0.000,     0.000,     0.000,   1,1,0
  1022,'1 ',1,   2,   1,   280.000,    95.000,     0.000,     0.000,     0.000,     0.000,   1,1,0
  1041,'1 ',1,   4,   1,   600.000,   200.000,     0.000,     0.000,     0.000,     0.000,   1,1,0
  1042,'1 ',1,   4,   1,   300.000,    80.000,     0.000,     0.000,     0.000,     0.000,   1,1,0
  1043,'1 ',1,   4,   1,   230.000,   100.000,     0.000,     0.000,     0.000,     0.000,   1,1,0
  1044,'1 ',1,   4,   1,   800.000,   300.000,     0.000,     0.000,     0.000,     0.000,   1,1,0
  1045,'1 ',1,   4,   1,   700.000,   250.000,     0.000,     0.000,     0.000,     0.000,   1,1,0
  2031,'1 ',1,   3,   1,   100.000,    30.000,     0.000,     0.000,     0.000,     0.000,   1,1,0
  2032,'1 ',1,   3,   1,   200.000,    50.000,     0.000,     0.000,     0.000,     0.000,   1,1,0
  4045,'5 ',1,   5,   1,   200.000,     0.000,     0.000,     0.000,     0.000,     0.000,   1,0,0
  4046,'5 ',1,   8,   1,  -200.000,     0.000,     0.000,     0.000,     0.000,     0.000,   1,0,0
  4051,'5 ',1,   5,   1,     0.000,     0.000,     0.000,     0.000,     0.000,     0.000,   1,0,0
  4063,'5 ',1,   6,   1,  -200.000,     0.000,     0.000,     0.000,     0.000,     0.000,   1,0,0
  5100,'1 ',1,   1,   1,  1319.000,   204.000,     0.000,     0.000,     0.000,     0.000,   1,1,0
  5300,'1 ',1,   1,   1,    67.000,     3.000,     0.000,     0.000,     0.000,     0.000,   1,1,0
  5400,'1 ',1,   1,   1,    31.000,     0.000,     0.000,     0.000,     0.000,     0.000,   1,1,0
  5500,'1 ',1,   1,   1,   409.000,    38.000,     0.000,     0.000,     0.000,     0.000,   1,1,0
  5600,'1 ',1,   1,   1,  1040.000,    99.000,     0.000,     0.000,     0.000,     0.000,   1,1,0
  5603,'1 ',1,   1,   1,   466.000,   171.000,     0.000,     0.000,     0.000,     0.000,   1,1,0
  6100,'1 ',1,   1,   1,  1014.000,   326.000,     0.000,     0.000,     0.000,     0.000,   1,1,0
  7100,'1 ',1,   7,   1,   341.000,    50.000,     0.000,     0.000,     0.000,     0.000,   1,1,0
  7101,'1 ',1,   1,   1,   341.000,    50.000,     0.000,     0.000,     0.000,     0.000,   1,1,0
  7201,'1 ',1,   1,   1,   300.000,    70.000,     0.000,     0.000,     0.000,     0.000,   1,1,0
  7203,'1 ',1,   1,   1,   300.000,    70.000,     0.000,     0.000,     0.000,     0.000,   1,1,0
  7203,'5 ',1,   1,   1,   200.000,     0.000,     0.000,     0.000,     0.000,     0.000,   1,0,0
  7204,'1 ',1,   1,   1,   600.000,   140.000,     0.000,     0.000,     0.000,     0.000,   1,1,0
  7205,'1 ',1,   1,   1,   300.000,    70.000,     0.000,     0.000,     0.000,     0.000,   1,1,0
  8001,'1 ',1,   1,   1,     0.000,     0.000,     0.000,     0.000,     0.000,     0.000,   1,1,0
  8500,'1 ',1,   1,   1,   333.000,   333.000,     0.000,     0.000,     0.000,     0.000,   1,1,0
0 / END OF LOAD DATA, BEGIN FIXED SHUNT DATA
  1022,'1 ',1,     0.000,    50.000
  1041,'1 ',1,     0.000,   200.000
  1043,'1 ',1,     0.000,   150.000
  1044,'1 ',1,     0.000,   200.000
  1045,'1 ',1,     0.000,   200.000
  4012,'1 ',1,     0.000,  -100.000
  4041,'1 ',1,     0.000,   200.000
  4043,'1 ',1,     0.000,   200.000
  4046,'1 ',1,     0.000,   100.000
  4051,'1 ',1,     0.000,   100.000
  7100,'1 ',0,     0.000,  -400.000
0 / END OF FIXED SHUNT DATA, BEGIN GENERATOR DATA
  1012,'1 ',   419.168,    90.837,   400.000,   -80.000,1.13000,     0,   800.000, 0.00000E+0, 2.00000E-1, 0.00000E+0, 1.50000E-1,1.00000,1,  100.0,  9999.000, -9999.000,   1,1.0000
  1013,'1 ',   314.376,    54.780,   300.000,   -50.000,1.14500,     0,   600.000, 0.00000E+0, 2.00000E-1, 0.00000E+0, 1.50000E-1,1.00000,1,  100.0,  9999.000, -9999.000,   1,1.0000
  1014,'1 ',   576.355,    81.871,   350.000,  -100.000,1.16000,     0,   700.000, 0.00000E+0, 2.00000E-1, 0.00000E+0, 1.50000E-1,1.00000,1,  100.0,  9999.000, -9999.000,   1,1.0000
  1021,'1 ',   419.168,    44.710,   300.000,   -60.000,1.10000,     0,   600.000, 0.00000E+0, 2.00000E-1, 0.00000E+0, 1.50000E-1,1.00000,1,  100.0,  9999.000, -9999.000,   1,1.0000
  1022,'1 ',   209.584,   125.000,   125.000,   -25.000,1.07000,     0,   250.000, 0.00000E+0, 2.00000E-1, 0.00000E+0, 1.50000E-1,1.00000,1,  100.0,  9999.000, -9999.000,   1,1.0000
  1042,'1 ',   377.251,    69.984,   200.000,   -40.000,1.00000,     0,   400.000, 0.00000E+0, 2.00000E-1, 0.00000E+0, 1.50000E-1,1.00000,1,  100.0,  9999.000, -9999.000,   1,1.0000
  1043,'1 ',   188.625,   100.000,   100.000,   -20.000,1.00000,     0,   200.000, 0.00000E+0, 2.00000E-1, 0.00000E+0, 1.50000E-1,1.00000,1,  100.0,  9999.000, -9999.000,   1,1.0000
  2032,'1 ',   785.939,   152.274,   425.000,   -80.000,1.10000,     0,   850.000, 0.00000E+0, 2.00000E-1, 0.00000E+0, 1.50000E-1,1.00000,1,  100.0,  9999.000, -9999.000,   1,1.0000
  4011,'1 ',   654.195,   -39.579,   500.000,  -100.000,1.00500,     0,  1000.000, 0.00000E+0, 2.00000E-1, 0.00000E+0, 1.50000E-1,1.00000,1,  100.0,  9999.000, -9999.000,   1,1.0000
  4012,'1 ',   523.959,   110.380,   400.000,  -160.000,1.01000,     0,   800.000, 0.00000E+0, 2.00000E-1, 0.00000E+0, 1.50000E-1,1.00000,1,  100.0,  9999.000, -9999.000,   1,1.0000
  4021,'1 ',   261.980,   -30.000,   150.000,   -30.000,1.00000,     0,   300.000, 0.00000E+0, 2.00000E-1, 0.00000E+0, 1.50000E-1,1.00000,1,  100.0,  9999.000, -9999.000,   1,1.0000
  4031,'1 ',   324.855,    13.057,   175.000,   -40.000,1.01000,     0,   350.000, 0.00000E+0, 2.00000E-1, 0.00000E+0, 1.50000E-1,1.00000,1,  100.0,  9999.000, -9999.000,   1,1.0000
  4041,'1 ',     0.000,   -36.636,   300.000,  -200.000,1.00000,     0,   300.000, 0.00000E+0, 2.00000E-1, 0.00000E+0, 1.50000E-1,1.00000,1,  100.0,  9999.000, -9999.000,   1,1.0000
  4042,'1 ',   660.189,    97.734,   350.000,     0.000,1.00000,     0,   700.000, 0.00000E+0, 2.00000E-1, 0.00000E+0, 1.50000E-1,1.00000,1,  100.0,  9999.000, -9999.000,   1,1.0000
  4047,'1 ',   565.876,   129.623,   300.000,     0.000,1.02000,     0,   600.000, 0.00000E+0, 2.00000E-1, 0.00000E+0, 1.50000E-1,1.00000,1,  100.0,  9999.000, -9999.000,   1,1.0000
  4047,'2 ',   565.876,   129.623,   300.000,     0.000,1.02000,     0,   600.000, 0.00000E+0, 2.00000E-1, 0.00000E+0, 1.50000E-1,1.00000,1,  100.0,  9999.000, -9999.000,   1,1.0000
  4051,'1 ',   628.751,    84.577,   350.000,     0.000,1.02000,     0,   700.000, 0.00000E+0, 2.00000E-1, 0.00000E+0, 1.50000E-1,1.00000,1,  100.0,  9999.000, -9999.000,   1,1.0000
  4051,'2 ',   419.168,    56.384,   350.000,     0.000,1.02000,     0,   700.000, 0.00000E+0, 2.00000E-1, 0.00000E+0, 1.50000E-1,1.00000,1,  100.0,  9999.000, -9999.000,   1,1.0000
  4062,'1 ',   555.397,    12.569,   300.000,     0.000,1.00000,     0,   600.000, 0.00000E+0, 2.00000E-1, 0.00000E+0, 1.50000E-1,1.00000,1,  100.0,  9999.000, -9999.000,   1,1.0000
  4062,'2 ',   555.397,    12.569,   300.000,     0.000,1.00000,     0,   600.000, 0.00000E+0, 2.00000E-1, 0.00000E+0, 1.50000E-1,1.00000,1,  100.0,  9999.000, -9999.000,   1,1.0000
  4063,'1 ',   100.000,    30.000,    30.000,     0.000,1.00000,     0,   150.000, 0.00000E+0, 2.00000E-1, 0.00000E+0, 1.50000E-1,1.00000,1,  100.0,  9999.000, -9999.000,   1,1.0000
  5100,'1 ',   502.303,   234.591,  9999.000, -9999.000,1.00000,     0,   600.000, 0.00000E+0, 1.51350E-1, 0.00000E+0, 0.00000E+0,1.00000,1,  100.0,  9999.000, -9999.000,   1,1.0000
  5300,'1 ',   772.304,     7.985,  9999.000, -9999.000,1.00000,     0,   916.000, 0.00000E+0, 2.60000E-1, 0.00000E+0, 0.00000E+0,1.00000,1,  100.0,  9999.000, -9999.000,   1,1.0000
  5400,'1 ',   538.983,   -10.208,  9999.000, -9999.000,1.00000,     0,   633.000, 0.00000E+0, 1.60000E-1, 0.00000E+0, 0.00000E+0,1.00000,1,  100.0,  9999.000, -9999.000,   1,1.0000
  5500,'1 ',   281.208,    61.403,  9999.000, -9999.000,1.00000,     0,   333.000, 0.00000E+0, 2.28250E-1, 0.00000E+0, 0.00000E+0,1.00000,1,  100.0,  9999.000, -9999.000,   1,1.0000
  5600,'1 ',   806.945,   234.593,  9999.000, -9999.000,1.00000,     0,   950.000, 0.00000E+0, 2.80000E-1, 0.00000E+0, 0.00000E+0,1.00000,1,  100.0,  9999.000, -9999.000,   1,1.0000
  6000,'1 ',   383.095,    -8.224,  9999.000, -9999.000,1.00000,     0,   466.000, 0.00000E+0, 2.80000E-1, 0.00000E+0, 0.00000E+0,1.00000,1,  100.0,  9999.000, -9999.000,   1,1.0000
  6100,'1 ',   796.757,   349.694,  9999.000, -9999.000,1.00000,     0,   966.000, 0.00000E+0, 1.80000E-1, 0.00000E+0, 0.00000E+0,1.00000,1,  100.0,  9999.000, -9999.000,   1,1.0000
  7100,'1 ',   222.114,     7.653,  9999.000, -9999.000,1.01000,     0,   333.000, 0.00000E+0, 1.53850E-1, 0.00000E+0, 0.00000E+0,1.00000,1,  100.0,  9999.000, -9999.000,   1,1.0000
  7101,'1 ',   222.114,    36.086,  9999.000, -9999.000,1.01000,     0,   333.000, 0.00000E+0, 1.53850E-1, 0.00000E+0, 0.00000E+0,1.00000,1,  100.0,  9999.000, -9999.000,   1,1.0000
  7201,'1 ',   359.661,    19.740,  9999.000, -9999.000,1.01000,     0,   433.000, 0.00000E+0, 2.25000E-1, 0.00000E+0, 0.00000E+0,1.00000,1,  100.0,  9999.000, -9999.000,   1,1.0000
  7203,'1 ',   764.153,    41.158,  9999.000, -9999.000,1.01000,     0,   866.000, 0.00000E+0, 2.25000E-1, 0.00000E+0, 0.00000E+0,1.00000,1,  100.0,  9999.000, -9999.000,   1,1.0000
  7204,'1 ',   407.548,   154.221,  9999.000, -9999.000,1.01000,     0,   475.000, 0.00000E+0, 2.25000E-1, 0.00000E+0, 0.00000E+0,1.00000,1,  100.0,  9999.000, -9999.000,   1,1.0000
  7205,'1 ',   407.548,    28.192,  9999.000, -9999.000,1.01000,     0,   475.000, 0.00000E+0, 2.25000E-1, 0.00000E+0, 0.00000E+0,1.00000,1,  100.0,  9999.000, -9999.000,   1,1.0000
  8002,'1 ',    -0.000,     0.000,  9999.000, -9999.000,1.00000,     0,   500.000, 0.00000E+0, 2.00000E-1, 0.00000E+0, 0.00000E+0,1.00000,1,  100.0,  9999.000, -9999.000,   1,1.0000
  8500,'1 ',   333.000,   324.861,  9999.000, -9999.000,1.02000,     0,   666.000, 0.00000E+0, 1.70620E-1, 0.00000E+0, 0.00000E+0,1.00000,1,  100.0,  9999.000, -9999.000,   1,1.0000
0 / END OF GENERATOR DATA, BEGIN BRANCH DATA
  1011,  1013,'1 ', 1.00000E-2, 7.00000E-2,   0.01400,    0.00,    0.00,    0.00,  0.00000,  0.00000,  0.00000,  0.00000,1,1,   0.00,   1,1.0000
  1011,  1013,'2 ', 1.00000E-2, 7.00000E-2,   0.01400,    0.00,    0.00,    0.00,  0.00000,  0.00000,  0.00000,  0.00000,1,1,   0.00,   1,1.0000
  1012,  1014,'1 ', 1.40000E-2, 9.00000E-2,   0.01800,    0.00,    0.00,    0.00,  0.00000,  0.00000,  0.00000,  0.00000,1,1,   0.00,   1,1.0000
  1012,  1014,'2 ', 1.40000E-2, 9.00000E-2,   0.01800,    0.00,    0.00,    0.00,  0.00000,  0.00000,  0.00000,  0.00000,1,1,   0.00,   1,1.0000
  1013,  1014,'1 ', 7.00000E-3, 5.00000E-2,   0.01000,    0.00,    0.00,    0.00,  0.00000,  0.00000,  0.00000,  0.00000,1,1,   0.00,   1,1.0000
  1013,  1014,'2 ', 7.00000E-3, 5.00000E-2,   0.01000,    0.00,    0.00,    0.00,  0.00000,  0.00000,  0.00000,  0.00000,1,1,   0.00,   1,1.0000
  1021,  1022,'1 ', 3.00000E-2, 2.00000E-1,   0.03000,    0.00,    0.00,    0.00,  0.00000,  0.00000,  0.00000,  0.00000,1,1,   0.00,   1,1.0000
  1021,  1022,'2 ', 3.00000E-2, 2.00000E-1,   0.03000,    0.00,    0.00,    0.00,  0.00000,  0.00000,  0.00000,  0.00000,1,1,   0.00,   1,1.0000
  1041,  1043,'1 ', 1.00000E-2, 6.00000E-2,   0.01200,    0.00,    0.00,    0.00,  0.00000,  0.00000,  0.00000,  0.00000,1,1,   0.00,   1,1.0000
  1041,  1043,'2 ', 1.00000E-2, 6.00000E-2,   0.01200,    0.00,    0.00,    0.00,  0.00000,  0.00000,  0.00000,  0.00000,1,1,   0.00,   1,1.0000
  1041,  1045,'1 ', 1.50000E-2, 1.20000E-1,   0.02500,    0.00,    0.00,    0.00,  0.00000,  0.00000,  0.00000,  0.00000,1,1,   0.00,   1,1.0000
  1041,  1045,'2 ', 1.50000E-2, 1.20000E-1,   0.02500,    0.00,    0.00,    0.00,  0.00000,  0.00000,  0.00000,  0.00000,1,1,   0.00,   1,1.0000
  1042,  1044,'1 ', 3.80000E-2, 2.80000E-1,   0.06000,    0.00,    0.00,    0.00,  0.00000,  0.00000,  0.00000,  0.00000,1,1,   0.00,   1,1.0000
  1042,  1044,'2 ', 3.80000E-2, 2.80000E-1,   0.06000,    0.00,    0.00,    0.00,  0.00000,  0.00000,  0.00000,  0.00000,1,1,   0.00,   1,1.0000
  1042,  1045,'1 ', 5.00000E-2, 3.00000E-1,   0.06000,    0.00,    0.00,    0.00,  0.00000,  0.00000,  0.00000,  0.00000,1,1,   0.00,   1,1.0000
  1043,  1044,'1 ', 1.00000E-2, 8.00000E-2,   0.01600,    0.00,    0.00,    0.00,  0.00000,  0.00000,  0.00000,  0.00000,1,1,   0.00,   1,1.0000
  1043,  1044,'2 ', 1.00000E-2, 8.00000E-2,   0.01600,    0.00,    0.00,    0.00,  0.00000,  0.00000,  0.00000,  0.00000,1,1,   0.00,   1,1.0000
  2031,  2032,'1 ', 1.20000E-2, 9.00000E-2,   0.01500,    0.00,    0.00,    0.00,  0.00000,  0.00000,  0.00000,  0.00000,1,1,   0.00,   1,1.0000
  2031,  2032,'2 ', 1.20000E-2, 9.00000E-2,   0.01500,    0.00,    0.00,    0.00,  0.00000,  0.00000,  0.00000,  0.00000,1,1,   0.00,   1,1.0000
  4011,  4012,'1 ', 1.00000E-3, 8.00000E-3,   0.20000,    0.00,    0.00,    0.00,  0.00000,  0.00000,  0.00000,  0.00000,1,1,   0.00,   1,1.0000
  4011,  4021,'1 ', 6.00000E-3, 6.00000E-2,   1.80000,    0.00,    0.00,    0.00,  0.00000,  0.00000,  0.00000,  0.00000,1,1,   0.00,   1,1.0000
  4011,  4022,'1 ', 4.00000E-3, 4.00000E-2,   1.20000,    0.00,    0.00,    0.00,  0.00000,  0.00000,  0.00000,  0.00000,1,1,   0.00,   1,1.0000
  4011,  7100,'1 ', 6.87500E-3, 6.87500E-2,   0.15125,    0.00,    0.00,    0.00,  0.00000,  0.00000,  0.00000,  0.00000,1,1,   0.00,   1,1.0000
  4012,  4022,'1 ', 4.00000E-3, 3.50000E-2,   1.05000,    0.00,    0.00,    0.00,  0.00000,  0.00000,  0.00000,  0.00000,1,1,   0.00,   1,1.0000
  4012,  7101,'1 ', 6.25000E-3, 6.25000E-2,   0.13333,    0.00,    0.00,    0.00,  0.00000,  0.00000,  0.00000,  0.00000,1,1,   0.00,   1,1.0000
  4021,  4032,'1 ', 4.00000E-3, 4.00000E-2,   1.20000,    0.00,    0.00,    0.00,  0.00000,  0.00000,  0.00000,  0.00000,1,1,   0.00,   1,1.0000
  4021,  4042,'1 ', 1.00000E-2, 6.00000E-2,   3.00000,    0.00,    0.00,    0.00,  0.00000,  0.00000,  0.00000,  0.00000,1,1,   0.00,   1,1.0000
  4022,  4031,'1 ', 4.00000E-3, 4.00000E-2,   1.20000,    0.00,    0.00,    0.00,  0.00000,  0.00000,  0.00000,  0.00000,1,1,   0.00,   1,1.0000
  4022,  4031,'2 ', 4.00000E-3, 4.00000E-2,   1.20000,    0.00,    0.00,    0.00,  0.00000,  0.00000,  0.00000,  0.00000,1,1,   0.00,   1,1.0000
  4031,  4032,'1 ', 1.00000E-3, 1.00000E-2,   0.30000,    0.00,    0.00,    0.00,  0.00000,  0.00000,  0.00000,  0.00000,1,1,   0.00,   1,1.0000
  4031,  4041,'1 ', 6.00000E-3, 4.00000E-2,   2.40000,    0.00,    0.00,    0.00,  0.00000,  0.00000,  0.00000,  0.00000,1,1,   0.00,   1,1.0000
  4031,  4041,'2 ', 6.00000E-3, 4.00000E-2,   2.40000,    0.00,    0.00,    0.00,  0.00000,  0.00000,  0.00000,  0.00000,1,1,   0.00,   1,1.0000
  4032,  4042,'1 ', 1.00000E-2, 4.00000E-2,   2.00000,    0.00,    0.00,    0.00,  0.00000,  0.00000,  0.00000,  0.00000,1,1,   0.00,   1,1.0000
  4032,  4044,'1 ', 6.00000E-3, 5.00000E-2,   2.40000,    0.00,    0.00,    0.00,  0.00000,  0.00000,  0.00000,  0.00000,1,1,   0.00,   1,1.0000
  4041,  4044,'1 ', 3.00000E-3, 3.00000E-2,   0.90000,    0.00,    0.00,    0.00,  0.00000,  0.00000,  0.00000,  0.00000,1,1,   0.00,   1,1.0000
  4041,  4061,'1 ', 6.00000E-3, 4.50000E-2,   1.30000,    0.00,    0.00,    0.00,  0.00000,  0.00000,  0.00000,  0.00000,1,1,   0.00,   1,1.0000
  4041,  5101,'1 ', 4.44000E-3, 5.78400E-2,   0.12000,    0.00,    0.00,    0.00,  0.00000,  0.00000,  0.00000,  0.00000,1,1,   0.00,   1,1.0000
  4041,  5101,'2 ', 4.44000E-3, 5.78400E-2,   0.12000,    0.00,    0.00,    0.00,  0.00000,  0.00000,  0.00000,  0.00000,1,1,   0.00,   1,1.0000
  4042,  4043,'1 ', 2.00000E-3, 1.50000E-2,   0.50000,    0.00,    0.00,    0.00,  0.00000,  0.00000,  0.00000,  0.00000,1,1,   0.00,   1,1.0000
  4042,  4044,'1 ', 2.00000E-3, 2.00000E-2,   0.60000,    0.00,    0.00,    0.00,  0.00000,  0.00000,  0.00000,  0.00000,1,1,   0.00,   1,1.0000
  4043,  4044,'1 ', 1.00000E-3, 1.00000E-2,   0.30000,    0.00,    0.00,    0.00,  0.00000,  0.00000,  0.00000,  0.00000,1,1,   0.00,   1,1.0000
  4043,  4046,'1 ', 1.00000E-3, 1.00000E-2,   0.30000,    0.00,    0.00,    0.00,  0.00000,  0.00000,  0.00000,  0.00000,1,1,   0.00,   1,1.0000
  4043,  4047,'1 ', 2.00000E-3, 2.00000E-2,   0.60000,    0.00,    0.00,    0.00,  0.00000,  0.00000,  0.00000,  0.00000,1,1,   0.00,   1,1.0000
  4044,  4045,'1 ', 2.00000E-3, 2.00000E-2,   0.60000,    0.00,    0.00,    0.00,  0.00000,  0.00000,  0.00000,  0.00000,1,1,   0.00,   1,1.0000
  4044,  4045,'2 ', 2.00000E-3, 2.00000E-2,   0.60000,    0.00,    0.00,    0.00,  0.00000,  0.00000,  0.00000,  0.00000,1,1,   0.00,   1,1.0000
  4044,  4045,'3 ', 8.25000E-3, 8.25000E-2,   0.15000,    0.00,    0.00,    0.00,  0.00000,  0.00000,  0.00000,  0.00000,1,1,   0.00,   1,1.0000
  4045,  4051,'1 ', 4.00000E-3, 4.00000E-2,   1.20000,    0.00,    0.00,    0.00,  0.00000,  0.00000,  0.00000,  0.00000,1,1,   0.00,   1,1.0000
  4045,  4051,'2 ', 4.00000E-3, 4.00000E-2,   1.20000,    0.00,    0.00,    0.00,  0.00000,  0.00000,  0.00000,  0.00000,1,1,   0.00,   1,1.0000
  4045,  4062,'1 ', 1.10000E-2, 8.00000E-2,   2.40000,    0.00,    0.00,    0.00,  0.00000,  0.00000,  0.00000,  0.00000,1,1,   0.00,   1,1.0000
  4046,  4047,'1 ', 1.00000E-3, 1.50000E-2,   0.50000,    0.00,    0.00,    0.00,  0.00000,  0.00000,  0.00000,  0.00000,1,1,   0.00,   1,1.0000
  4061,  4062,'1 ', 2.00000E-3, 2.00000E-2,   0.60000,    0.00,    0.00,    0.00,  0.00000,  0.00000,  0.00000,  0.00000,1,1,   0.00,   1,1.0000
  4062,  4063,'1 ', 3.00000E-3, 3.00000E-2,   0.90000,    0.00,    0.00,    0.00,  0.00000,  0.00000,  0.00000,  0.00000,1,1,   0.00,   1,1.0000
  4062,  4063,'2 ', 3.00000E-3, 3.00000E-2,   0.90000,    0.00,    0.00,    0.00,  0.00000,  0.00000,  0.00000,  0.00000,1,1,   0.00,   1,1.0000
  4063,  8500,'1 ', 2.40000E-2, 9.30000E-2,   1.00000,    0.00,    0.00,    0.00,  0.00000,  0.00000,  0.00000,  0.00000,1,1,   0.00,   1,1.0000
  5100,  5300,'1 ', 1.20000E-2, 1.20000E-1,   0.16600,    0.00,    0.00,    0.00,  0.00000,  0.00000,  0.00000,  0.00000,1,2,   0.00,   1,1.0000
  5100,  5500,'1 ', 5.40000E-3, 4.50000E-2,   0.07100,    0.00,    0.00,    0.00,  0.00000,  0.00000,  0.00000,  0.00000,1,2,   0.00,   1,1.0000
  5101,  5501,'1 ', 1.83000E-3, 1.92900E-2,   1.08600,    0.00,    0.00,    0.00,  0.00000,  0.00000,  0.00000,  0.00000,1,1,   0.00,   1,1.0000
  5102,  5301,'1 ', 2.25000E-3, 3.23700E-2,   0.42960,    0.00,    0.00,    0.00,  0.00000,  0.00000,  0.00000,  0.00000,1,1,   0.00,   1,1.0000
  5102,  6001,'1 ', 6.00000E-3, 1.05000E-1,   0.33300,    0.00,    0.00,    0.00,  0.00000,  0.00000,  0.00000,  0.00000,1,2,   0.00,   1,1.0000
  5103,  5301,'1 ', 5.10000E-3, 6.93600E-2,   0.22500,    0.00,    0.00,    0.00,  0.00000,  0.00000,  0.00000,  0.00000,1,2,   0.00,   1,1.0000
  5400,  5500,'1 ', 2.40000E-3, 3.33000E-2,   0.00000,    0.00,    0.00,    0.00,  0.00000,  0.00000,  0.00000,  0.00000,1,1,   0.00,   1,1.0000
  5400,  6000,'1 ', 3.00000E-3, 3.00000E-2,   0.03300,    0.00,    0.00,    0.00,  0.00000,  0.00000,  0.00000,  0.00000,1,2,   0.00,   1,1.0000
  5400,  6100,'1 ', 6.00000E-3, 6.00000E-2,   0.04000,    0.00,    0.00,    0.00,  0.00000,  0.00000,  0.00000,  0.00000,1,2,   0.00,   1,1.0000
  5401,  5501,'1 ', 4.50000E-3, 6.00000E-2,   0.20000,    0.00,    0.00,    0.00,  0.00000,  0.00000,  0.00000,  0.00000,1,2,   0.00,   1,1.0000
  5401,  5602,'1 ', 4.62000E-3, 7.21800E-2,   0.29320,    0.00,    0.00,    0.00,  0.00000,  0.00000,  0.00000,  0.00000,1,1,   0.00,   1,1.0000
  5401,  6001,'1 ', 9.00000E-4, 1.50000E-2,   0.05000,    0.00,    0.00,    0.00,  0.00000,  0.00000,  0.00000,  0.00000,1,1,   0.00,   1,1.0000
  5402,  6001,'1 ', 1.53000E-3, 2.25300E-2,   0.07840,    0.00,    0.00,    0.00,  0.00000,  0.00000,  0.00000,  0.00000,1,2,   0.00,   1,1.0000
  5500,  5603,'1 ', 1.20000E-2, 1.35000E-1,   0.02660,    0.00,    0.00,    0.00,  0.00000,  0.00000,  0.00000,  0.00000,1,1,   0.00,   1,1.0000
  5600,  5603,'1 ', 6.03000E-3, 6.63300E-2,   0.06950,    0.00,    0.00,    0.00,  0.00000,  0.00000,  0.00000,  0.00000,1,1,   0.00,   1,1.0000
  5600,  6000,'1 ', 1.05000E-2, 1.05000E-1,   0.15000,    0.00,    0.00,    0.00,  0.00000,  0.00000,  0.00000,  0.00000,1,2,   0.00,   1,1.0000
  5601,  6001,'1 ', 4.11000E-3, 6.09300E-2,   0.21200,    0.00,    0.00,    0.00,  0.00000,  0.00000,  0.00000,  0.00000,1,2,   0.00,   1,1.0000
  6000,  6100,'1 ', 6.60000E-3, 7.18200E-2,   0.06660,    0.00,    0.00,    0.00,  0.00000,  0.00000,  0.00000,  0.00000,1,1,   0.00,   1,1.0000
  7100,  7101,'1 ', 2.50000E-3, 2.50000E-2,   0.05567,    0.00,    0.00,    0.00,  0.00000,  0.00000,  0.00000,  0.00000,1,1,   0.00,   1,1.0000
  7100,  7200,'1 ', 2.37500E-2, 2.37500E-1,   0.52883,    0.00,    0.00,    0.00,  0.00000,  0.00000,  0.00000,  0.00000,1,1,   0.00,   1,1.0000
  7100,  7200,'2 ', 2.37500E-2, 2.37500E-1,   0.52883,    0.00,    0.00,    0.00,  0.00000,  0.00000,  0.00000,  0.00000,1,1,   0.00,   1,1.0000
  7101,  7102,'2 ', 1.12500E-2, 1.12500E-1,   0.25050,    0.00,    0.00,    0.00,  0.00000,  0.00000,  0.00000,  0.00000,1,1,   0.00,   1,1.0000
  7102,  7201,'1 ', 1.12500E-2, 1.12500E-1,   0.25050,    0.00,    0.00,    0.00,  0.00000,  0.00000,  0.00000,  0.00000,1,1,   0.00,   1,1.0000
  7200,  7201,'1 ', 5.00000E-3, 5.00000E-2,   0.11133,    0.00,    0.00,    0.00,  0.00000,  0.00000,  0.00000,  0.00000,1,2,   0.00,   1,1.0000
  7200,  7205,'1 ', 5.00000E-3, 5.00000E-2,   0.11111,    0.00,    0.00,    0.00,  0.00000,  0.00000,  0.00000,  0.00000,1,1,   0.00,   1,1.0000
  7201,  7203,'1 ', 5.00000E-3, 5.00000E-2,   0.11133,    0.00,    0.00,    0.00,  0.00000,  0.00000,  0.00000,  0.00000,1,1,   0.00,   1,1.0000
  7203,  7204,'1 ', 5.00000E-3, 5.00000E-2,   0.11133,    0.00,    0.00,    0.00,  0.00000,  0.00000,  0.00000,  0.00000,1,2,   0.00,   1,1.0000
  7204,  7205,'1 ', 5.00000E-3, 5.00000E-2,   0.11133,    0.00,    0.00,    0.00,  0.00000,  0.00000,  0.00000,  0.00000,1,2,   0.00,   1,1.0000
  8001,  8002,'1 ', 1.25000E-3, 1.25000E-2,   0.00000,    0.00,    0.00,    0.00,  0.00000,  0.00000,  0.00000,  0.00000,0,1,   0.00,   1,1.0000
0 / END OF BRANCH DATA, BEGIN TRANSFORMER DATA
    41,  4041,     0,'1 ',1,1,1, 0.00000E+0, 0.00000E+0,2,'            ',1,   1,1.0000,   0,1.0000,   0,1.0000,   0,1.0000,'            '
 0.00000E+0, 1.00000E-2,   100.00
1.00000,   0.000,   0.000,  1000.00,     0.00,     0.00, 1,     41, 1.12000, 0.88000, 1.00048, 0.97048,  25, 0, 0.00000, 0.00000,  0.000
1.00000,   0.000
    42,  4042,     0,'1 ',1,1,1, 0.00000E+0, 0.00000E+0,2,'            ',1,   1,1.0000,   0,1.0000,   0,1.0000,   0,1.0000,'            '
 0.00000E+0, 1.30000E-2,   100.00
1.00000,   0.000,   0.000,   770.00,     0.00,     0.00, 1,     42, 1.12000, 0.88000, 0.99645, 0.96645,  25, 0, 0.00000, 0.00000,  0.000
1.00000,   0.000
    43,  4043,     0,'1 ',1,1,1, 0.00000E+0, 0.00000E+0,2,'            ',1,   1,1.0000,   0,1.0000,   0,1.0000,   0,1.0000,'            '
 0.00000E+0, 7.00000E-3,   100.00
1.00000,   0.000,   0.000,  1430.00,     0.00,     0.00, 1,     43, 1.12000, 0.88000, 0.98710, 0.95710,  25, 0, 0.00000, 0.00000,  0.000
1.00000,   0.000
    46,  4046,     0,'1 ',1,1,1, 0.00000E+0, 0.00000E+0,2,'            ',1,   1,1.0000,   0,1.0000,   0,1.0000,   0,1.0000,'            '
 0.00000E+0, 1.00000E-2,   100.00
1.00000,   0.000,   0.000,  1000.00,     0.00,     0.00, 1,     46, 1.12000, 0.88000, 0.98317, 0.95318,  25, 0, 0.00000, 0.00000,  0.000
1.00000,   0.000
    47,  4047,     0,'1 ',1,1,1, 0.00000E+0, 0.00000E+0,2,'            ',1,   1,1.0000,   0,1.0000,   0,1.0000,   0,1.0000,'            '
 0.00000E+0, 4.00000E-2,   100.00
1.00000,   0.000,   0.000,   250.00,     0.00,     0.00, 1,     47, 1.12000, 0.88000, 1.01616, 0.98616,  25, 0, 0.00000, 0.00000,  0.000
1.00000,   0.000
    51,  4051,     0,'1 ',1,1,1, 0.00000E+0, 0.00000E+0,2,'            ',1,   1,1.0000,   0,1.0000,   0,1.0000,   0,1.0000,'            '
 0.00000E+0, 7.00000E-3,   100.00
1.00000,   0.000,   0.000,  1430.00,     0.00,     0.00, 1,     51, 1.12000, 0.88000, 1.01676, 0.98676,  25, 0, 0.00000, 0.00000,  0.000
1.00000,   0.000
    61,  4061,     0,'1 ',1,1,1, 0.00000E+0, 0.00000E+0,2,'            ',1,   1,1.0000,   0,1.0000,   0,1.0000,   0,1.0000,'            '
 0.00000E+0, 1.30000E-2,   100.00
1.00000,   0.000,   0.000,   770.00,     0.00,     0.00, 1,     61, 1.12000, 0.88000, 0.97889, 0.94889,  25, 0, 0.00000, 0.00000,  0.000
1.00000,   0.000
    62,  4062,     0,'1 ',1,1,1, 0.00000E+0, 0.00000E+0,2,'            ',1,   1,1.0000,   0,1.0000,   0,1.0000,   0,1.0000,'            '
 0.00000E+0, 2.00000E-2,   100.00
1.00000,   0.000,   0.000,   500.00,     0.00,     0.00, 1,     62, 1.12000, 0.88000, 0.99722, 0.96722,  25, 0, 0.00000, 0.00000,  0.000
1.00000,   0.000
    63,  4063,     0,'1 ',1,1,1, 0.00000E+0, 0.00000E+0,2,'            ',1,   1,1.0000,   0,1.0000,   0,1.0000,   0,1.0000,'            '
 0.00000E+0, 1.00000E-2,   100.00
1.00000,   0.000,   0.000,  1000.00,     0.00,     0.00, 1,     63, 1.12000, 0.88000, 0.98679, 0.95679,  25, 0, 0.00000, 0.00000,  0.000
1.00000,   0.000
  1011,  4011,     0,'1 ',1,1,1, 0.00000E+0, 0.00000E+0,2,'            ',1,   1,1.0000,   0,1.0000,   0,1.0000,   0,1.0000,'            '
 0.00000E+0, 8.00000E-3,   100.00
1.12000,   0.000,   0.000,     0.00,     0.00,     0.00, 0,      0, 1.10000, 0.90000, 1.10000, 0.90000, 999, 0, 0.00000, 0.00000,  0.000
1.00000,   0.000
  1012,  4012,     0,'1 ',1,1,1, 0.00000E+0, 0.00000E+0,2,'            ',1,   1,1.0000,   0,1.0000,   0,1.0000,   0,1.0000,'            '
 0.00000E+0, 8.00000E-3,   100.00
1.12000,   0.000,   0.000,     0.00,     0.00,     0.00, 0,      0, 1.10000, 0.90000, 1.10000, 0.90000, 999, 0, 0.00000, 0.00000,  0.000
1.00000,   0.000
  1022,  4022,     0,'1 ',1,1,1, 0.00000E+0, 0.00000E+0,2,'            ',1,   1,1.0000,   0,1.0000,   0,1.0000,   0,1.0000,'            '
 0.00000E+0, 1.20000E-2,   100.00
1.07000,   0.000,   0.000,     0.00,     0.00,     0.00, 0,      0, 1.10000, 0.90000, 1.10000, 0.90000, 999, 0, 0.00000, 0.00000,  0.000
1.00000,   0.000
  1044,  4044,     0,'1 ',1,1,1, 0.00000E+0, 0.00000E+0,2,'            ',1,   1,1.0000,   0,1.0000,   0,1.0000,   0,1.0000,'            '
 0.00000E+0, 1.00000E-2,   100.00
1.00000,   0.000,   0.000,     0.00,     0.00,     0.00, 1,   1044, 1.12000, 0.88000, 1.00300, 0.97400,  25, 0, 0.00000, 0.00000,  0.000
1.00000,   0.000
  1044,  4044,     0,'2 ',1,1,1, 0.00000E+0, 0.00000E+0,2,'            ',1,   1,1.0000,   0,1.0000,   0,1.0000,   0,1.0000,'            '
 0.00000E+0, 1.00000E-2,   100.00
1.00000,   0.000,   0.000,     0.00,     0.00,     0.00, 1,   1044, 1.12000, 0.88000, 1.00300, 0.97400,  25, 0, 0.00000, 0.00000,  0.000
1.00000,   0.000
  1045,  4045,     0,'1 ',1,1,1, 0.00000E+0, 0.00000E+0,2,'            ',1,   1,1.0000,   0,1.0000,   0,1.0000,   0,1.0000,'            '
 0.00000E+0, 1.00000E-2,   100.00
1.00000,   0.000,   0.000,     0.00,     0.00,     0.00, 1,   1045, 1.12000, 0.88000, 1.01100, 0.98090,  25, 0, 0.00000, 0.00000,  0.000
1.00000,   0.000
  1045,  4045,     0,'2 ',1,1,1, 0.00000E+0, 0.00000E+0,2,'            ',1,   1,1.0000,   0,1.0000,   0,1.0000,   0,1.0000,'            '
 0.00000E+0, 1.00000E-2,   100.00
1.00000,   0.000,   0.000,     0.00,     0.00,     0.00, 1,   1045, 1.12000, 0.88000, 1.01100, 0.98090,  25, 0, 0.00000, 0.00000,  0.000
1.00000,   0.000
  2031,  4031,     0,'1 ',1,1,1, 0.00000E+0, 0.00000E+0,2,'            ',1,   1,1.0000,   0,1.0000,   0,1.0000,   0,1.0000,'            '
 0.00000E+0, 1.20000E-2,   100.00
1.05000,   0.000,   0.000,     0.00,     0.00,     0.00, 0,      0, 1.10000, 0.90000, 1.10000, 0.90000, 999, 0, 0.00000, 0.00000,  0.000
1.00000,   0.000
  5101,  5100,     0,'1 ',1,1,1, 0.00000E+0, 0.00000E+0,2,'            ',1,   1,1.0000,   0,1.0000,   0,1.0000,   0,1.0000,'            '
 2.40000E-4, 9.15000E-3,   100.00
1.00000,   0.000,   0.000,     0.00,     0.00,     0.00, 0,   5101, 1.10000, 0.90000, 1.01000, 0.99000,  33, 0, 0.00000, 0.00000,  0.000
1.00000,   0.000
  5102,  5100,     0,'1 ',1,1,1, 0.00000E+0, 0.00000E+0,2,'            ',1,   1,1.0000,   0,1.0000,   0,1.0000,   0,1.0000,'            '
 2.40000E-4, 9.15000E-3,   100.00
1.00000,   0.000,   0.000,     0.00,     0.00,     0.00, 0,   5102, 1.10000, 0.90000, 1.01000, 0.99000,  33, 0, 0.00000, 0.00000,  0.000
1.00000,   0.000
  5103,  5100,     0,'1 ',1,1,1, 0.00000E+0, 0.00000E+0,2,'            ',1,   1,1.0000,   0,1.0000,   0,1.0000,   0,1.0000,'            '
 7.50000E-4, 3.00000E-2,   100.00
1.00000,   0.000,   0.000,     0.00,     0.00,     0.00, 0,   5103, 1.10000, 0.90000, 1.01000, 0.99000,  33, 0, 0.00000, 0.00000,  0.000
1.00000,   0.000
  5300,  5301,     0,'1 ',1,1,1, 0.00000E+0, 0.00000E+0,2,'            ',1,   1,1.0000,   0,1.0000,   0,1.0000,   0,1.0000,'            '
 4.80000E-4, 1.80000E-2,   100.00
1.00000,   0.000,   0.000,     0.00,     0.00,     0.00, 0,   5301, 1.10000, 0.90000, 1.01000, 0.99000,  33, 0, 0.00000, 0.00000,  0.000
1.00000,   0.000
  5400,  5401,     0,'1 ',1,1,1, 0.00000E+0, 0.00000E+0,2,'            ',1,   1,1.0000,   0,1.0000,   0,1.0000,   0,1.0000,'            '
 9.60000E-4, 3.60000E-2,   100.00
1.00000,   0.000,   0.000,     0.00,     0.00,     0.00, 0,   5401, 1.10000, 0.90000, 1.01000, 0.99000,  33, 0, 0.00000, 0.00000,  0.000
1.00000,   0.000
  5400,  5402,     0,'1 ',1,1,1, 0.00000E+0, 0.00000E+0,2,'            ',1,   1,1.0000,   0,1.0000,   0,1.0000,   0,1.0000,'            '
 1.20000E-4, 4.50000E-3,   100.00
1.00000,   0.000,   0.000,     0.00,     0.00,     0.00, 0,   5402, 1.10000, 0.90000, 1.01000, 0.99000,  33, 0, 0.00000, 0.00000,  0.000
1.00000,   0.000
  5500,  5501,     0,'1 ',1,1,1, 0.00000E+0, 0.00000E+0,2,'            ',1,   1,1.0000,   0,1.0000,   0,1.0000,   0,1.0000,'            '
 1.20000E-4, 4.50000E-3,   100.00
1.00000,   0.000,   0.000,     0.00,     0.00,     0.00, 0,   5501, 1.10000, 0.90000, 1.01000, 0.99000,  33, 0, 0.00000, 0.00000,  0.000
1.00000,   0.000
  5600,  5601,     0,'1 ',1,1,1, 0.00000E+0, 0.00000E+0,2,'            ',1,   1,1.0000,   0,1.0000,   0,1.0000,   0,1.0000,'            '
 6.00000E-5, 2.28000E-3,   100.00
1.00000,   0.000,   0.000,     0.00,     0.00,     0.00, 0,   5601, 1.10000, 0.90000, 1.01000, 0.99000,  33, 0, 0.00000, 0.00000,  0.000
1.00000,   0.000
  5603,  5602,     0,'1 ',1,1,1, 0.00000E+0, 0.00000E+0,2,'            ',1,   1,1.0000,   0,1.0000,   0,1.0000,   0,1.0000,'            '
 2.40000E-4, 9.15000E-3,   100.00
1.00000,   0.000,   0.000,     0.00,     0.00,     0.00, 0,   5602, 1.10000, 0.90000, 1.01000, 0.99000,  33, 0, 0.00000, 0.00000,  0.000
1.00000,   0.000
  6000,  6001,     0,'1 ',1,1,1, 0.00000E+0, 0.00000E+0,2,'            ',1,   1,1.0000,   0,1.0000,   0,1.0000,   0,1.0000,'            '
 1.20000E-4, 4.50000E-3,   100.00
1.00000,   0.000,   0.000,     0.00,     0.00,     0.00, 0,   6001, 1.10000, 0.90000, 1.01000, 0.99000,  33, 0, 0.00000, 0.00000,  0.000
1.00000,   0.000
0 / END OF TRANSFORMER DATA, BEGIN AREA DATA
0 / END OF AREA DATA, BEGIN TWO-TERMINAL DC DATA
0 / END OF TWO-TERMINAL DC DATA, BEGIN VSC DC LINE DATA
"FENNOSKAN   ",0,    4.0000,   1,1.0000
  7203,1,2,    400.00, 1.00000,  1000.000,     0.000,     0.000,    225.00,    325.00,0.50000,    103.00,   -103.00,     0,  100.0
  4046,2,2,    200.00, 1.00000,  1000.000,     0.000,     0.000,    225.00,    325.00,0.50000,    103.00,   -103.00,     0,  100.0
"NORDBALT    ",0,    8.0000,   1,1.0000
  4051,1,2,    400.00, 1.00000,  1000.000,     0.000,     0.000,    260.00,    375.00,0.50000,    115.00,   -115.00,     0,  100.0
  8001,2,1,      0.00, 1.00000,  1000.000,     0.000,     0.000,    260.00,    375.00,0.50000,    115.00,   -115.00,     0,  100.0
"SOUTHWEST   ",0,    6.0000,   1,1.0000
  4045,1,2,    400.00, 1.00000,  1000.000,     0.000,     0.000,    450.00,    577.00,0.50000,    190.00,   -190.00,     0,  100.0
  4063,2,1,    200.00, 1.00000,  1000.000,     0.000,     0.000,    450.00,    577.00,0.50000,    190.00,   -190.00,     0,   75.0
0 / END OF VSC DC LINE DATA, BEGIN IMPEDANCE CORRECTION DATA
0 / END OF IMPEDANCE CORRECTION DATA, BEGIN MULTI-TERMINAL DC DATA
0 / END OF MULTI-TERMINAL DC DATA, BEGIN MULTI-SECTION LINE DATA
0 / END OF MULTI-SECTION LINE DATA, BEGIN ZONE DATA
0 / END OF ZONE DATA, BEGIN INTER-AREA TRANSFER DATA
0 / END OF INTER-AREA TRANSFER DATA, BEGIN OWNER DATA
0 / END OF OWNER DATA, BEGIN FACTS DEVICE DATA
0 / END OF FACTS DEVICE DATA, BEGIN SWITCHED SHUNT DATA
0 / END OF SWITCHED SHUNT DATA, BEGIN GNE DATA
0 / END OF GNE DATA, BEGIN INDUCTION MACHINE DATA
0 / END OF INDUCTION MACHINE DATA
Q
